<?xml version="1.0" encoding="UTF-8"?>

<routes xmlns:xsi="http://www.w3.org/2001/XMLSchema-instance" xsi:noNamespaceSchemaLocation="http://sumo.dlr.de/xsd/routes_file.xsd">
    <!-- 车辆类型定义 -->
    <vType id="car" accel="2.6" decel="4.5" sigma="0.5" length="4.5" maxSpeed="16"/>
    <vType id="moto" vClass="motorcycle" accel="4.0" decel="6.0" sigma="0.8" length="2.2" maxSpeed="16"/>

    <!-- 红磡隧道 - 绕polyu - polyu路口南行，分为汽车和摩托 -->
    <flow id="F1_car" color="1,0,0" begin="0.5" end="2000868" vehsPerHour="1400" type="car">
        <route edges="26 158 195 234 150.0 150#1 75 76 63 -58 80 219 55 174 154 179 102 111"/>
    </flow>
    <flow id="F1_moto" color="0,0,1" begin="0.5" end="2000868" vehsPerHour="600" type="moto">
        <route edges="26 158 195 234 150.0 150#1 75 76 63 -58 80 219 55 174 154 179 102 111"/>
    </flow>

    <!-- 桥 - polyu 路口 一直南行方向 -->
    <flow id="F2" color="1,0,0" begin="0.5" end="2000868" vehsPerHour="200" type="car"> 
        <route edges="-211 -187 -58 80 219 55 174 154 179 102 111"/>
    </flow>
    <!-- 桥 - polyu 路口右转 - polyu南大门 - 绕半圈 -->
    <flow id="F7" color="1,0,0" begin="0.5" end="2000868" vehsPerHour="100" type="car">
        <route edges="-211 -187 -58 80 28 109 175 127 57 158 195 69"/>
    </flow>
    <flow id="F3" color="1,0,0" begin="0.5" end="2000868" vehsPerHour="500" type="car">
        <route edges="-111 -102 -179 -154 -174 -55 -219 -80 58 187 211"/>
    </flow>
    <flow id="F4" color="1,0,0" begin="0.5" end="2000868" vehsPerHour="200" type="car">
        <route edges="36 -95 -167 -160 -229 -209 41 18#0 18#1 18#2 110 144 -171 82 23 128 17#0 17#1 178 157"/>
    </flow>
    <flow id="F5" color="1,0,0" begin="0.5" end="2000868" vehsPerHour="120" type="car">
        <route edges="-157 -178 -17#1 -17#0 -128 -23 -82 171 -144 -110 -18#2 -18#1 -18#0 -41 209 229 160 167 95 -36"/>
    </flow>
    <flow id="F6" color="1,0,0" begin="0.5" end="2000868" vehsPerHour="200" type="car">
        <route edges="231 -126 138 79 88 130 "/>
    </flow>
</routes>