<?xml version="1.0" encoding="UTF-8"?>

<configuration xmlns:xsi="http://www.w3.org/2001/XMLSchema-instance" xsi:noNamespaceSchemaLocation="http://sumo.dlr.de/xsd/sumoConfiguration.xsd">

    <input>
        <net-file value="SumoHKPolyU.net.xml"/>
        <route-files value="HKpolyuuv19_car.rou.xml"/>
    </input>

    <time>
        <begin value="0"/>
        <end value="9999900"/>
    </time>

    <processing>
        <time-to-teleport value="-1"/>
    </processing>

</configuration>