<?xml version="1.0" encoding="UTF-8"?>

<!-- generated on 2024-05-06 14:11:28.788785 by randomTrips.py v1_18_0+0000-03ecfdea036
<configuration>
    <net-file value=".\HKpolyUv19.net.xml"/>
    <route-file value="HKpolyuuv19_car.rou.xml"/>
    <length value="True"/>
    <end value="1000.0"/>
    <period value="1.4"/>
</configuration>
-->

<!-- generated on 2024-05-06 14:11:28 by Eclipse SUMO duarouter Version 1.18.0
<configuration xmlns:xsi="http://www.w3.org/2001/XMLSchema-instance" xsi:noNamespaceSchemaLocation="http://sumo.dlr.de/xsd/duarouterConfiguration.xsd">

    <input>
        <net-file value=".\HKpolyUv19.net.xml"/>
        <route-files value="trips.trips.xml"/>
    </input>

    <output>
        <output-file value="HKpolyuuv19_car.rou.xml"/>
        <alternatives-output value="NUL"/>
    </output>

    <time>
        <begin value="0"/>
        <end value="1000.0"/>
    </time>

    <report>
        <no-warnings value="true"/>
        <ignore-errors value="true"/>
        <no-step-log value="true"/>
    </report>

</configuration>
-->

<routes xmlns:xsi="http://www.w3.org/2001/XMLSchema-instance" xsi:noNamespaceSchemaLocation="http://sumo.dlr.de/xsd/routes_file.xsd">
    <vType id="car" accel="2.6" decel="4.5" sigma="0.5" length="4.5" maxSpeed="50"/>
    <flow id="F1" color="1,0,0" begin="0.5" end="2000868" vehsPerHour="120" type="car">
        <route edges="26 158 195 234 150.0 150#1 75 76 63 -58 80 219 55 174 154 179 102 111"/>
    </flow>
    <flow id="F2" color="1,0,0" begin="0.5" end="2000868" vehsPerHour="200" type="car">
        <route edges="-211 -187 -58 80 219 55 174 154 179 102 111"/>
    </flow>
    <flow id="F7" color="1,0,0" begin="0.5" end="2000868" vehsPerHour="200" type="car">
        <route edges="-211 -187 -58 80 28 109 175 127 57 158 195 69"/>
    </flow>
    <flow id="F3" color="1,0,0" begin="0.5" end="2000868" vehsPerHour="120" type="car">
        <route edges="-111 -102 -179 -154 -174 -55 -219 -80 58 187 211"/>
    </flow>
    <flow id="F4" color="1,0,0" begin="0.5" end="2000868" vehsPerHour="200" type="car">
        <route edges="36 -95 -167 -160 -229 -209 41 18#0 18#1 18#2 110 144 -171 82 23 128 17#0 17#1 178 157"/>
    </flow>
    <flow id="F5" color="1,0,0" begin="0.5" end="2000868" vehsPerHour="120" type="car">
        <route edges="-157 -178 -17#1 -17#0 -128 -23 -82 171 -144 -110 -18#2 -18#1 -18#0 -41 209 229 160 167 95 -36"/>
    </flow>
    <flow id="F6" color="1,0,0" begin="0.5" end="2000868" vehsPerHour="200" type="car">
        <route edges="231 -126 138 79 88 130 "/>
    </flow>
</routes>