<?xml version="1.0" encoding="UTF-8"?>

<!-- generated on 2024-06-26 00:22:38 by Eclipse SUMO netedit Version 1.18.0
<configuration xmlns:xsi="http://www.w3.org/2001/XMLSchema-instance" xsi:noNamespaceSchemaLocation="http://sumo.dlr.de/xsd/neteditConfiguration.xsd">

    <input>
        <sumo-net-file value="D:\SimulationCode\carla\Co-Simulation\Sumo\PolyUSumo\SumoHKPolyU.net.xml"/>
    </input>

    <output>
        <output-file value="D:\SimulationCode\carla\Co-Simulation\Sumo\PolyUSumo\SumoHKPolyU.net.xml"/>
    </output>

    <processing>
        <geometry.min-radius.fix.railways value="false"/>
        <geometry.max-grade.fix value="false"/>
        <offset.disable-normalization value="true"/>
        <lefthand value="1"/>
    </processing>

    <junctions>
        <no-turnarounds value="true"/>
        <junctions.corner-detail value="5"/>
        <junctions.limit-turn-speed value="5.50"/>
        <rectangular-lane-cut value="1"/>
    </junctions>

    <pedestrian>
        <walkingareas value="0"/>
    </pedestrian>

</configuration>
-->

<net version="1.16" junctionCornerDetail="5" rectangularLaneCut="true" lefthand="true" limitTurnSpeed="5.50" xmlns:xsi="http://www.w3.org/2001/XMLSchema-instance" xsi:noNamespaceSchemaLocation="http://sumo.dlr.de/xsd/net_file.xsd">

    <location netOffset="660.68,650.42" convBoundary="0.00,0.07,1451.25,1773.59" origBoundary="0.000000,0.000000,0.000000,0.000000" projParameter="+proj=tmerc +lat_0=22.30235331546677 +lon_0=114.1771970024831 +k=1 +x_0=0 +y_0=0 +datum=WGS84 +units=m  +vunits=m +no_defs "/>

    <type id="driving" priority="1" speed="13.89" disallow="pedestrian tram rail_urban rail rail_electric rail_fast ship" width="3.65"/>

    <edge id=":1#1_0" function="internal">
        <lane id=":1#1_0_0" index="0" allow="emergency authority" speed="17.88" length="7.72" width="1.75" shape="217.55,1050.46,8.12 216.06,1048.82,8.14 215.51,1047.27,8.16 214.97,1045.71,8.17 213.48,1044.07,8.19"/>
        <lane id=":1#1_0_1" index="1" disallow="pedestrian tram rail_urban rail rail_electric rail_fast ship" speed="17.88" length="8.17" width="3.50" shape="215.43,1053.25,8.12 213.99,1051.47,8.14 213.66,1049.71,8.16 213.33,1047.94,8.17 211.89,1046.16,8.19"/>
        <lane id=":1#1_0_2" index="2" disallow="pedestrian tram rail_urban rail rail_electric rail_fast ship" speed="17.88" length="7.11" width="3.50" shape="215.43,1053.25,8.12 209.77,1048.95,8.19"/>
    </edge>
    <edge id=":1#2_0" function="internal">
        <lane id=":1#2_0_0" index="0" allow="emergency authority" speed="17.88" length="2.07" width="3.50" shape="213.32,1043.95,8.19 212.92,1043.47,8.20 212.80,1043.00,8.20 212.69,1042.54,8.21 212.28,1042.05,8.21"/>
        <lane id=":1#2_0_1" index="1" disallow="pedestrian tram rail_urban rail rail_electric rail_fast ship" speed="17.88" length="2.07" width="3.50" shape="211.73,1046.04,8.19 210.15,1044.83,8.21"/>
        <lane id=":1#2_0_2" index="2" disallow="pedestrian tram rail_urban rail rail_electric rail_fast ship" speed="17.88" length="2.07" width="3.50" shape="209.62,1048.82,8.19 208.02,1047.60,8.21"/>
    </edge>
    <edge id=":1003_0" function="internal">
        <lane id=":1003_0_0" index="0" disallow="pedestrian tram rail_urban rail rail_electric rail_fast ship" speed="13.41" length="48.51" width="3.50" shape="796.75,643.02,5.65 780.08,651.56,5.27 767.37,655.22,5.00 758.63,654.01,4.82 753.86,647.93,4.66"/>
    </edge>
    <edge id=":1003_1" function="internal">
        <lane id=":1003_1_0" index="0" disallow="pedestrian tram rail_urban rail rail_electric rail_fast ship" speed="17.88" length="60.87" width="3.50" shape="796.75,643.02,5.65 787.09,648.02,5.38 772.89,654.67,5.00 756.89,661.93,4.57 741.83,668.70,4.17"/>
        <lane id=":1003_1_1" index="1" disallow="pedestrian tram rail_urban rail rail_electric rail_fast ship" speed="17.88" length="60.87" width="3.30" shape="796.75,643.02,5.65 787.31,648.50,5.38 773.59,656.22,5.00 758.07,664.54,4.57 743.24,671.80,4.17"/>
        <lane id=":1003_1_2" index="2" disallow="pedestrian tram rail_urban rail rail_electric rail_fast ship" speed="17.88" length="60.87" width="3.50" shape="798.52,646.04,5.65 789.03,651.53,5.38 775.18,659.28,5.00 759.53,667.62,4.57 744.64,674.90,4.17"/>
    </edge>
    <edge id=":1003_4" function="internal">
        <lane id=":1003_4_0" index="0" disallow="pedestrian tram rail_urban rail rail_electric rail_fast ship" speed="15.35" length="55.17" width="3.50" shape="801.30,651.48,6.48 781.24,656.96,5.79 766.09,658.37,5.29 755.85,655.73,4.94 750.53,649.02,4.66"/>
    </edge>
    <edge id=":1003_5" function="internal">
        <lane id=":1003_5_0" index="0" disallow="pedestrian tram rail_urban rail rail_electric rail_fast ship" speed="17.88" length="61.19" width="3.50" shape="801.30,651.48,6.48 791.01,655.31,6.07 776.24,661.28,5.47 759.84,668.21,4.80 744.64,674.90,4.17"/>
        <lane id=":1003_5_1" index="1" disallow="pedestrian tram rail_urban rail rail_electric rail_fast ship" speed="17.88" length="61.19" width="3.40" shape="802.41,654.80,6.48 792.16,658.61,6.07 777.51,664.52,5.47 761.22,671.38,4.80 746.06,678.04,4.17"/>
    </edge>
    <edge id=":1003_7" function="internal">
        <lane id=":1003_7_0" index="0" disallow="pedestrian tram rail_urban rail rail_electric rail_fast ship" speed="17.88" length="60.03" width="4.11" shape="748.93,684.39,4.17 760.92,679.66,4.72 778.78,673.22,5.54 795.85,667.37,6.32 805.48,664.46,6.75"/>
    </edge>
    <edge id=":1003_8" function="internal">
        <lane id=":1003_8_0" index="0" disallow="pedestrian tram rail_urban rail rail_electric rail_fast ship" speed="17.88" length="60.64" width="3.50" shape="747.48,681.18,4.17 759.41,676.06,4.66 777.14,668.70,5.40 794.04,661.81,6.09 803.51,658.12,6.48"/>
    </edge>
    <edge id=":1003_9" function="internal">
        <lane id=":1003_9_0" index="0" disallow="pedestrian tram rail_urban rail rail_electric rail_fast ship" speed="9.62" length="19.16" width="3.50" shape="743.88,651.21,4.66 745.53,657.71,4.49 745.74,662.79,4.36 744.51,666.46,4.26 741.83,668.70,4.17"/>
        <lane id=":1003_9_1" index="1" disallow="pedestrian tram rail_urban rail rail_electric rail_fast ship" speed="10.75" length="24.21" width="3.30" shape="747.21,650.12,4.66 749.09,657.97,4.50 749.05,664.20,4.37 747.10,668.81,4.27 743.24,671.80,4.17"/>
    </edge>
    <edge id=":1023_0" function="internal">
        <lane id=":1023_0_0" index="0" disallow="pedestrian tram rail_urban rail rail_electric rail_fast ship" speed="10.57" length="19.54" width="3.50" shape="62.59,1156.87,5.86 61.54,1162.76,5.61 59.53,1167.25,5.41 56.53,1170.35,5.24 52.57,1172.04,5.06"/>
    </edge>
    <edge id=":1023_1" function="internal">
        <lane id=":1023_1_0" index="0" disallow="pedestrian tram rail_urban rail rail_electric rail_fast ship" speed="17.88" length="26.47" width="3.50" shape="62.59,1156.87,5.86 62.44,1165.14,5.73 63.12,1171.26,5.63 63.87,1176.77,5.54 63.90,1183.25,5.44"/>
        <lane id=":1023_1_1" index="1" disallow="pedestrian tram rail_urban rail rail_electric rail_fast ship" speed="17.88" length="26.47" width="3.50" shape="66.08,1157.17,5.86 65.92,1165.43,5.73 66.61,1171.54,5.63 67.36,1177.05,5.54 67.39,1183.53,5.44"/>
    </edge>
    <edge id=":1023_3" function="internal">
        <lane id=":1023_3_0" index="0" disallow="pedestrian tram rail_urban rail rail_electric rail_fast ship" speed="10.41" length="4.29" width="3.50" shape="69.57,1157.46,5.86 70.08,1161.72,5.71"/>
    </edge>
    <edge id=":1023_15" function="internal">
        <lane id=":1023_15_0" index="0" disallow="pedestrian tram rail_urban rail rail_electric rail_fast ship" speed="10.41" length="20.39" width="3.50" shape="70.08,1161.72,5.71 70.23,1162.95,5.66 73.27,1167.08,5.48 78.68,1169.86,5.26 86.48,1171.28,4.97"/>
    </edge>
    <edge id=":1023_4" function="internal">
        <lane id=":1023_4_0" index="0" disallow="pedestrian tram rail_urban rail rail_electric rail_fast ship" speed="7.76" length="13.24" width="3.50" shape="86.76,1167.80,4.97 83.54,1166.97,5.19 81.34,1165.12,5.39 80.17,1162.25,5.60 80.03,1158.35,5.86"/>
    </edge>
    <edge id=":1023_5" function="internal">
        <lane id=":1023_5_0" index="0" disallow="pedestrian tram rail_urban rail rail_electric rail_fast ship" speed="17.88" length="34.49" width="3.50" shape="86.76,1167.80,4.97 80.01,1168.13,4.99 69.63,1169.35,5.01 59.27,1170.86,5.04 52.57,1172.04,5.06"/>
    </edge>
    <edge id=":1023_6" function="internal">
        <lane id=":1023_6_0" index="0" disallow="pedestrian tram rail_urban rail rail_electric rail_fast ship" speed="11.14" length="28.49" width="3.50" shape="86.76,1167.80,4.97 78.80,1168.22,5.10 72.92,1170.98,5.21 69.11,1176.09,5.31 67.39,1183.53,5.44"/>
    </edge>
    <edge id=":1023_7" function="internal">
        <lane id=":1023_7_0" index="0" disallow="pedestrian tram rail_urban rail rail_electric rail_fast ship" speed="8.83" length="17.46" width="3.50" shape="77.85,1184.37,5.44 78.80,1178.41,5.28 80.56,1174.24,5.16 83.11,1171.87,5.06 86.48,1171.28,4.97"/>
    </edge>
    <edge id=":1023_8" function="internal">
        <lane id=":1023_8_0" index="0" disallow="pedestrian tram rail_urban rail rail_electric rail_fast ship" speed="17.88" length="26.13" width="3.50" shape="77.85,1184.37,5.44 80.03,1158.35,5.86"/>
        <lane id=":1023_8_1" index="1" disallow="pedestrian tram rail_urban rail rail_electric rail_fast ship" speed="17.88" length="26.13" width="3.50" shape="74.36,1184.09,5.44 76.54,1158.06,5.86"/>
        <lane id=":1023_8_2" index="2" disallow="pedestrian tram rail_urban rail rail_electric rail_fast ship" speed="17.88" length="26.13" width="3.50" shape="70.87,1183.81,5.44 73.05,1157.76,5.86"/>
    </edge>
    <edge id=":1023_11" function="internal">
        <lane id=":1023_11_0" index="0" disallow="pedestrian tram rail_urban rail rail_electric rail_fast ship" speed="9.84" length="7.34" width="3.50" shape="70.87,1183.81,5.44 70.08,1176.51,5.34"/>
    </edge>
    <edge id=":1023_16" function="internal">
        <lane id=":1023_16_0" index="0" disallow="pedestrian tram rail_urban rail rail_electric rail_fast ship" speed="9.84" length="19.59" width="3.50" shape="70.08,1176.51,5.34 66.51,1172.42,5.26 60.54,1171.07,5.17 52.57,1172.04,5.06"/>
    </edge>
    <edge id=":1023_12" function="internal">
        <lane id=":1023_12_0" index="0" disallow="pedestrian tram rail_urban rail rail_electric rail_fast ship" speed="7.77" length="16.26" width="3.50" shape="53.33,1175.46,5.06 58.26,1174.99,5.18 61.67,1176.13,5.26 63.55,1178.88,5.34 63.90,1183.25,5.44"/>
    </edge>
    <edge id=":1023_13" function="internal">
        <lane id=":1023_13_0" index="0" disallow="pedestrian tram rail_urban rail rail_electric rail_fast ship" speed="17.88" length="33.44" width="3.50" shape="53.33,1175.46,5.06 59.87,1174.29,5.04 69.86,1172.81,5.01 79.88,1171.61,4.99 86.48,1171.28,4.97"/>
    </edge>
    <edge id=":1023_14" function="internal">
        <lane id=":1023_14_0" index="0" disallow="pedestrian tram rail_urban rail rail_electric rail_fast ship" speed="12.68" length="28.49" width="3.50" shape="53.33,1175.46,5.06 61.53,1172.79,5.30 67.55,1168.95,5.50 71.39,1163.94,5.68 73.05,1157.76,5.86"/>
    </edge>
    <edge id=":1045_0" function="internal">
        <lane id=":1045_0_0" index="0" disallow="pedestrian tram rail_urban rail rail_electric rail_fast ship" speed="7.52" length="12.19" width="3.50" shape="276.90,831.51,10.22 276.15,835.03,10.30 274.64,837.47,10.36 272.36,838.83,10.42 269.31,839.12,10.49"/>
    </edge>
    <edge id=":1045_1" function="internal">
        <lane id=":1045_1_0" index="0" disallow="pedestrian tram rail_urban rail rail_electric rail_fast ship" speed="17.88" length="20.22" width="3.50" shape="276.90,831.51,10.22 275.37,851.67,9.81"/>
    </edge>
    <edge id=":1045_2" function="internal">
        <lane id=":1045_2_0" index="0" disallow="pedestrian tram rail_urban rail rail_electric rail_fast ship" speed="17.88" length="20.16" width="3.50" shape="278.87,851.93,9.81 280.38,831.83,10.22"/>
    </edge>
    <edge id=":1045_3" function="internal">
        <lane id=":1045_3_0" index="0" disallow="pedestrian tram rail_urban rail rail_electric rail_fast ship" speed="9.02" length="5.62" width="3.50" shape="278.87,851.93,9.81 278.60,846.62,10.01 278.48,846.35,10.02"/>
    </edge>
    <edge id=":1045_6" function="internal">
        <lane id=":1045_6_0" index="0" disallow="pedestrian tram rail_urban rail rail_electric rail_fast ship" speed="9.02" length="12.59" width="3.50" shape="278.48,846.35,10.02 276.92,842.71,10.17 273.82,840.21,10.32 269.31,839.12,10.49"/>
    </edge>
    <edge id=":1045_4" function="internal">
        <lane id=":1045_4_0" index="0" disallow="pedestrian tram rail_urban rail rail_electric rail_fast ship" speed="7.59" length="12.58" width="3.50" shape="269.05,842.60,10.49 272.05,843.37,10.32 274.11,845.14,10.18 275.22,847.90,10.01 275.37,851.67,9.81"/>
    </edge>
    <edge id=":1045_5" function="internal">
        <lane id=":1045_5_0" index="0" disallow="pedestrian tram rail_urban rail rail_electric rail_fast ship" speed="8.96" length="17.77" width="3.50" shape="269.05,842.60,10.49 273.62,842.22,10.42 277.03,840.30,10.36 279.28,836.83,10.30 280.38,831.83,10.22"/>
    </edge>
    <edge id=":1064_0" function="internal">
        <lane id=":1064_0_0" index="0" disallow="pedestrian tram rail_urban rail rail_electric rail_fast ship" speed="9.09" length="20.69" width="3.50" shape="80.58,961.96,8.52 79.28,965.45,8.39 75.91,967.41,8.25 70.47,967.86,8.05 62.95,966.78,7.78"/>
    </edge>
    <edge id=":1064_1" function="internal">
        <lane id=":1064_1_0" index="0" disallow="pedestrian tram rail_urban rail rail_electric rail_fast ship" speed="17.88" length="49.97" width="3.50" shape="80.58,961.96,8.52 76.34,1011.75,7.85"/>
        <lane id=":1064_1_1" index="1" disallow="pedestrian tram rail_urban rail rail_electric rail_fast ship" speed="17.88" length="49.97" width="3.50" shape="84.07,962.17,8.52 79.83,1011.96,7.85"/>
        <lane id=":1064_1_2" index="2" disallow="pedestrian tram rail_urban rail rail_electric rail_fast ship" speed="17.88" length="49.97" width="3.50" shape="87.56,962.38,8.52 83.32,1012.16,7.85"/>
    </edge>
    <edge id=":1064_4" function="internal">
        <lane id=":1064_4_0" index="0" disallow="pedestrian tram rail_urban rail rail_electric rail_fast ship" speed="15.45" length="4.25" width="3.50" shape="87.56,962.38,8.52 88.07,966.60,8.51"/>
    </edge>
    <edge id=":1064_20" function="internal">
        <lane id=":1064_20_0" index="0" disallow="pedestrian tram rail_urban rail rail_electric rail_fast ship" speed="15.45" length="36.29" width="3.50" shape="88.07,966.60,8.51 88.63,971.19,8.49 92.96,979.06,8.47 100.56,985.99,8.44 111.42,991.99,8.40"/>
    </edge>
    <edge id=":1064_5" function="internal">
        <lane id=":1064_5_0" index="0" disallow="pedestrian tram rail_urban rail rail_electric rail_fast ship" speed="12.85" length="27.78" width="3.50" shape="115.67,982.39,8.40 107.70,978.14,8.44 102.11,973.49,8.47 98.89,968.45,8.50 98.04,963.02,8.52"/>
    </edge>
    <edge id=":1064_6" function="internal">
        <lane id=":1064_6_0" index="0" disallow="pedestrian tram rail_urban rail rail_electric rail_fast ship" speed="17.88" length="54.34" width="3.50" shape="115.67,982.39,8.40 103.71,977.83,8.26 89.67,973.49,8.09 75.45,969.69,7.92 62.95,966.78,7.78"/>
        <lane id=":1064_6_1" index="1" disallow="pedestrian tram rail_urban rail rail_electric rail_fast ship" speed="17.88" length="54.34" width="3.50" shape="114.25,985.59,8.40 102.40,981.07,8.26 88.59,976.80,8.09 74.60,973.08,7.93 62.22,970.20,7.78"/>
        <lane id=":1064_6_2" index="2" disallow="pedestrian tram rail_urban rail rail_electric rail_fast ship" speed="17.88" length="54.34" width="3.50" shape="112.84,988.79,8.40 101.09,984.30,8.25 87.51,980.11,8.09 73.76,976.47,7.93 61.48,973.62,7.78"/>
    </edge>
    <edge id=":1064_9" function="internal">
        <lane id=":1064_9_0" index="0" disallow="pedestrian tram rail_urban rail rail_electric rail_fast ship" speed="12.64" length="10.70" width="3.50" shape="112.84,988.79,8.40 102.41,986.41,8.27"/>
    </edge>
    <edge id=":1064_21" function="internal">
        <lane id=":1064_21_0" index="0" disallow="pedestrian tram rail_urban rail rail_electric rail_fast ship" speed="12.64" length="36.27" width="3.50" shape="102.41,986.41,8.27 100.33,985.93,8.25 91.38,989.47,8.14 85.77,998.51,8.01 83.32,1012.16,7.85"/>
    </edge>
    <edge id=":1064_10" function="internal">
        <lane id=":1064_10_0" index="0" disallow="pedestrian tram rail_urban rail rail_electric rail_fast ship" speed="10.11" length="29.52" width="3.50" shape="93.80,1012.79,7.85 95.36,1002.64,8.04 98.58,996.33,8.17 103.46,993.84,8.28 110.00,995.19,8.40"/>
    </edge>
    <edge id=":1064_11" function="internal">
        <lane id=":1064_11_0" index="0" disallow="pedestrian tram rail_urban rail rail_electric rail_fast ship" speed="17.88" length="49.96" width="3.50" shape="93.80,1012.79,7.85 98.04,963.02,8.52"/>
        <lane id=":1064_11_1" index="1" disallow="pedestrian tram rail_urban rail rail_electric rail_fast ship" speed="17.88" length="49.96" width="3.50" shape="90.31,1012.58,7.85 94.55,962.81,8.52"/>
        <lane id=":1064_11_2" index="2" disallow="pedestrian tram rail_urban rail rail_electric rail_fast ship" speed="17.88" length="49.96" width="3.50" shape="86.82,1012.37,7.85 91.06,962.60,8.52"/>
    </edge>
    <edge id=":1064_14" function="internal">
        <lane id=":1064_14_0" index="0" disallow="pedestrian tram rail_urban rail rail_electric rail_fast ship" speed="15.75" length="6.06" width="3.50" shape="86.82,1012.37,7.85 86.47,1006.33,7.84"/>
    </edge>
    <edge id=":1064_22" function="internal">
        <lane id=":1064_22_0" index="0" disallow="pedestrian tram rail_urban rail rail_electric rail_fast ship" speed="15.75" length="45.08" width="3.50" shape="86.47,1006.33,7.84 85.97,997.62,7.83 81.47,986.25,7.81 73.30,978.25,7.80 61.48,973.62,7.78"/>
    </edge>
    <edge id=":1064_15" function="internal">
        <lane id=":1064_15_0" index="0" disallow="pedestrian tram rail_urban rail rail_electric rail_fast ship" speed="13.27" length="36.03" width="3.50" shape="59.27,983.88,7.78 67.27,987.12,7.80 72.78,992.84,7.81 75.81,1001.05,7.83 76.34,1011.75,7.85"/>
    </edge>
    <edge id=":1064_16" function="internal">
        <lane id=":1064_16_0" index="0" disallow="pedestrian tram rail_urban rail rail_electric rail_fast ship" speed="17.88" length="52.39" width="3.50" shape="59.27,983.88,7.78 72.10,986.41,7.94 86.71,989.20,8.11 100.28,992.16,8.28 110.00,995.19,8.40"/>
        <lane id=":1064_16_1" index="1" disallow="pedestrian tram rail_urban rail rail_electric rail_fast ship" speed="17.88" length="52.39" width="3.50" shape="60.00,980.46,7.78 72.94,983.03,7.94 87.78,985.89,8.11 101.59,988.92,8.28 111.42,991.99,8.40"/>
    </edge>
    <edge id=":1064_18" function="internal">
        <lane id=":1064_18_0" index="0" disallow="pedestrian tram rail_urban rail rail_electric rail_fast ship" speed="12.49" length="10.63" width="3.50" shape="60.74,977.04,7.78 71.25,978.60,7.98"/>
    </edge>
    <edge id=":1064_19" function="internal">
        <lane id=":1064_19_0" index="0" disallow="pedestrian tram rail_urban rail rail_electric rail_fast ship" speed="3.82" length="1.58" width="3.50" shape="60.74,977.04,7.78 62.21,976.46,7.78"/>
    </edge>
    <edge id=":1064_23" function="internal">
        <lane id=":1064_23_0" index="0" disallow="pedestrian tram rail_urban rail rail_electric rail_fast ship" speed="12.49" length="29.54" width="3.50" shape="71.25,978.60,7.98 73.02,978.87,8.01 82.34,977.76,8.18 88.44,972.68,8.33 91.06,962.60,8.52"/>
    </edge>
    <edge id=":1064_24" function="internal">
        <lane id=":1064_24_0" index="0" disallow="pedestrian tram rail_urban rail rail_electric rail_fast ship" speed="3.82" length="3.53" width="3.50" shape="62.21,976.46,7.78 62.82,975.70,7.78 62.58,974.75,7.78 61.48,973.62,7.78"/>
    </edge>
    <edge id=":1089_0" function="internal">
        <lane id=":1089_0_0" index="0" disallow="pedestrian tram rail_urban rail rail_electric rail_fast ship" speed="17.88" length="4.20" width="3.50" shape="837.09,1146.06,15.02 836.07,1141.99,14.84"/>
        <lane id=":1089_0_1" index="1" disallow="pedestrian tram rail_urban rail rail_electric rail_fast ship" speed="17.88" length="4.20" width="3.50" shape="833.70,1146.91,15.02 832.68,1142.84,14.84"/>
    </edge>
    <edge id=":1089_2" function="internal">
        <lane id=":1089_2_0" index="0" disallow="pedestrian tram rail_urban rail rail_electric rail_fast ship" speed="17.88" length="4.20" width="3.50" shape="825.89,1144.53,14.84 826.91,1148.60,15.02"/>
        <lane id=":1089_2_1" index="1" disallow="pedestrian tram rail_urban rail rail_electric rail_fast ship" speed="17.88" length="4.20" width="3.50" shape="829.28,1143.68,14.84 830.30,1147.75,15.02"/>
    </edge>
    <edge id=":1094_0" function="internal">
        <lane id=":1094_0_0" index="0" disallow="pedestrian tram rail_urban rail rail_electric rail_fast ship" speed="17.88" length="33.23" width="3.50" shape="804.25,526.32,4.28 782.60,551.53,4.63"/>
    </edge>
    <edge id=":1094_1" function="internal">
        <lane id=":1094_1_0" index="0" disallow="pedestrian tram rail_urban rail rail_electric rail_fast ship" speed="9.94" length="4.26" width="3.50" shape="806.77,528.75,4.28 803.40,531.36,4.34"/>
    </edge>
    <edge id=":1094_2" function="internal">
        <lane id=":1094_2_0" index="0" disallow="pedestrian tram rail_urban rail rail_electric rail_fast ship" speed="17.88" length="33.24" width="3.50" shape="806.77,528.75,4.28 785.11,553.97,4.63"/>
    </edge>
    <edge id=":1094_8" function="internal">
        <lane id=":1094_8_0" index="0" disallow="pedestrian tram rail_urban rail rail_electric rail_fast ship" speed="9.94" length="17.88" width="3.50" shape="803.40,531.36,4.34 802.04,532.40,4.36 797.22,533.65,4.43 792.31,532.51,4.50 787.30,528.96,4.58"/>
    </edge>
    <edge id=":1094_3" function="internal">
        <lane id=":1094_3_0" index="0" disallow="pedestrian tram rail_urban rail rail_electric rail_fast ship" speed="17.88" length="33.26" width="3.50" shape="790.14,558.85,4.63 811.81,533.62,4.28"/>
    </edge>
    <edge id=":1094_4" function="internal">
        <lane id=":1094_4_0" index="0" disallow="pedestrian tram rail_urban rail rail_electric rail_fast ship" speed="12.60" length="17.87" width="3.50" shape="790.14,558.85,4.63 796.21,550.53,4.62 797.97,543.17,4.61"/>
    </edge>
    <edge id=":1094_5" function="internal">
        <lane id=":1094_5_0" index="0" disallow="pedestrian tram rail_urban rail rail_electric rail_fast ship" speed="17.88" length="33.25" width="3.50" shape="787.63,556.41,4.63 809.29,531.19,4.28"/>
    </edge>
    <edge id=":1094_9" function="internal">
        <lane id=":1094_9_0" index="0" disallow="pedestrian tram rail_urban rail rail_electric rail_fast ship" speed="12.60" length="19.28" width="3.50" shape="797.97,543.17,4.61 798.16,542.36,4.60 795.99,534.32,4.59 789.69,526.41,4.58"/>
    </edge>
    <edge id=":1094_6" function="internal">
        <lane id=":1094_6_0" index="0" disallow="pedestrian tram rail_urban rail rail_electric rail_fast ship" speed="12.10" length="33.31" width="3.50" shape="782.51,534.07,4.58 790.02,539.37,4.50 797.41,541.06,4.43 804.67,539.14,4.36 811.81,533.62,4.28"/>
    </edge>
    <edge id=":1094_7" function="internal">
        <lane id=":1094_7_0" index="0" disallow="pedestrian tram rail_urban rail rail_electric rail_fast ship" speed="10.55" length="25.71" width="3.50" shape="784.90,531.52,4.58 789.24,536.97,4.59 790.72,542.53,4.60 789.34,548.20,4.62 785.11,553.97,4.63"/>
    </edge>
    <edge id=":1112_0" function="internal">
        <lane id=":1112_0_0" index="0" disallow="pedestrian tram rail_urban rail rail_electric rail_fast ship" speed="7.15" length="10.90" width="3.50" shape="188.48,1069.00,7.68 187.74,1071.85,7.70 186.24,1073.80,7.71 183.98,1074.83,7.72 180.97,1074.96,7.74"/>
    </edge>
    <edge id=":1112_1" function="internal">
        <lane id=":1112_1_0" index="0" disallow="pedestrian tram rail_urban rail rail_electric rail_fast ship" speed="7.15" length="10.90" width="3.50" shape="188.48,1069.00,7.68 187.74,1071.85,7.70 186.24,1073.80,7.71 183.98,1074.83,7.72 180.97,1074.96,7.74"/>
    </edge>
    <edge id=":1112_2" function="internal">
        <lane id=":1112_2_0" index="0" disallow="pedestrian tram rail_urban rail rail_electric rail_fast ship" speed="17.88" length="18.61" width="3.50" shape="188.48,1069.00,7.68 186.57,1087.50,7.23"/>
    </edge>
    <edge id=":1112_3" function="internal">
        <lane id=":1112_3_0" index="0" disallow="pedestrian tram rail_urban rail rail_electric rail_fast ship" speed="17.88" length="18.54" width="3.50" shape="190.05,1087.82,7.23 191.96,1069.38,7.68"/>
    </edge>
    <edge id=":1112_4" function="internal">
        <lane id=":1112_4_0" index="0" disallow="pedestrian tram rail_urban rail rail_electric rail_fast ship" speed="8.97" length="5.46" width="3.50" shape="190.05,1087.82,7.23 189.88,1082.56,7.38 189.81,1082.37,7.39"/>
    </edge>
    <edge id=":1112_5" function="internal">
        <lane id=":1112_5_0" index="0" disallow="pedestrian tram rail_urban rail rail_electric rail_fast ship" speed="8.97" length="5.46" width="3.50" shape="190.05,1087.82,7.23 189.88,1082.56,7.38 189.81,1082.37,7.39"/>
    </edge>
    <edge id=":1112_6" function="internal">
        <lane id=":1112_6_0" index="0" disallow="pedestrian tram rail_urban rail rail_electric rail_fast ship" speed="8.97" length="12.43" width="3.50" shape="189.81,1082.37,7.39 188.31,1078.67,7.50 185.34,1076.13,7.61 180.97,1074.96,7.74"/>
    </edge>
    <edge id=":1112_7" function="internal">
        <lane id=":1112_7_0" index="0" disallow="pedestrian tram rail_urban rail rail_electric rail_fast ship" speed="8.97" length="12.43" width="3.50" shape="189.81,1082.37,7.39 188.31,1078.67,7.50 185.34,1076.13,7.61 180.97,1074.96,7.74"/>
    </edge>
    <edge id=":112#1_0" function="internal">
        <lane id=":112#1_0_0" index="0" disallow="pedestrian tram rail_urban rail rail_electric rail_fast ship" speed="17.88" length="7.75" width="3.50" shape="1348.85,873.08,16.97 1344.74,879.59,17.04"/>
        <lane id=":112#1_0_1" index="1" disallow="pedestrian tram rail_urban rail rail_electric rail_fast ship" speed="17.88" length="7.75" width="3.50" shape="1351.84,874.89,16.97 1347.68,881.48,17.04"/>
    </edge>
    <edge id=":112#2_0" function="internal">
        <lane id=":112#2_0_0" index="0" allow="emergency authority" speed="17.88" length="3.09" width="1.80" shape="1357.53,849.56,16.69 1357.27,850.43,16.70 1357.28,851.09,16.71 1357.28,851.75,16.71 1357.01,852.62,16.73"/>
        <lane id=":112#2_0_1" index="1" disallow="pedestrian tram rail_urban rail rail_electric rail_fast ship" speed="17.88" length="3.09" width="3.50" shape="1360.70,851.04,16.69 1359.39,853.78,16.73"/>
        <lane id=":112#2_0_2" index="2" disallow="pedestrian tram rail_urban rail rail_electric rail_fast ship" speed="17.88" length="3.09" width="3.50" shape="1363.88,852.51,16.69 1362.54,855.31,16.73"/>
    </edge>
    <edge id=":1136_0" function="internal">
        <lane id=":1136_0_0" index="0" disallow="pedestrian tram rail_urban rail rail_electric rail_fast ship" speed="17.88" length="50.69" width="3.50" shape="424.27,1152.62,15.31 375.55,1166.97,15.52"/>
        <lane id=":1136_0_1" index="1" disallow="pedestrian tram rail_urban rail rail_electric rail_fast ship" speed="17.88" length="50.69" width="3.50" shape="425.32,1155.96,15.31 376.71,1170.27,15.52"/>
        <lane id=":1136_0_2" index="2" disallow="pedestrian tram rail_urban rail rail_electric rail_fast ship" speed="17.88" length="50.69" width="3.50" shape="425.32,1155.96,15.31 377.88,1173.57,15.52"/>
    </edge>
    <edge id=":114.end_0" function="internal">
        <lane id=":114.end_0_0" index="0" disallow="pedestrian tram rail_urban rail rail_electric rail_fast ship" speed="3.82" length="5.11" width="3.50" shape="656.13,213.90,3.85 655.92,215.46,3.85 656.29,216.36,3.85 657.23,216.61,3.85 658.75,216.20,3.85"/>
    </edge>
    <edge id=":1142_0" function="internal">
        <lane id=":1142_0_0" index="0" disallow="pedestrian tram rail_urban rail rail_electric rail_fast ship" speed="10.39" length="24.62" width="3.50" shape="275.75,740.94,11.78 274.45,747.91,11.66 271.46,752.76,11.56 266.78,755.50,11.46 260.41,756.12,11.35"/>
    </edge>
    <edge id=":1142_1" function="internal">
        <lane id=":1142_1_0" index="0" disallow="pedestrian tram rail_urban rail rail_electric rail_fast ship" speed="17.88" length="64.20" width="3.50" shape="275.75,740.94,11.78 276.26,752.36,11.51 277.61,772.98,11.01 278.93,793.60,10.51 279.34,805.01,10.24"/>
    </edge>
    <edge id=":1142_2" function="internal">
        <lane id=":1142_2_0" index="0" disallow="pedestrian tram rail_urban rail rail_electric rail_fast ship" speed="14.22" length="8.63" width="3.50" shape="275.75,740.94,11.78 276.96,749.47,11.25"/>
    </edge>
    <edge id=":1142_14" function="internal">
        <lane id=":1142_14_0" index="0" disallow="pedestrian tram rail_urban rail rail_electric rail_fast ship" speed="14.22" length="40.68" width="3.50" shape="276.96,749.47,11.25 277.35,752.23,11.07 283.62,760.27,10.44 294.56,765.06,9.70 310.17,766.59,8.73"/>
    </edge>
    <edge id=":1142_3" function="internal">
        <lane id=":1142_3_0" index="0" disallow="pedestrian tram rail_urban rail rail_electric rail_fast ship" speed="12.96" length="40.81" width="3.50" shape="310.13,759.59,8.73 296.22,758.50,9.78 286.44,755.06,10.55 280.78,749.27,11.16 279.25,741.14,11.78"/>
    </edge>
    <edge id=":1142_4" function="internal">
        <lane id=":1142_4_0" index="0" disallow="pedestrian tram rail_urban rail rail_electric rail_fast ship" speed="17.88" length="50.03" width="3.50" shape="310.13,759.59,8.73 260.41,756.12,11.35"/>