<?xml version='1.0' encoding='UTF-8'?>
<!-- generated on 2024-05-06 17:43:45 by Eclipse SUMO netconvert Version 1.18.0
<configuration xmlns:xsi="http://www.w3.org/2001/XMLSchema-instance" xsi:noNamespaceSchemaLocation="http://sumo.dlr.de/xsd/netconvertConfiguration.xsd">

    <input>
        <type-files value="D:\SimulationCode\carla\Co-Simulation\Sumo\util\data/opendrive_netconvert.typ.xml"/>
        <opendrive-files value="HKPolyUv19.xodr"/>
    </input>

    <output>
        <output-file value="C:\Users\ADMINI~1\AppData\Local\Temp\tmpstja1366\HKPolyUv19.net.xml"/>
        <output.original-names value="true"/>
    </output>

    <processing>
        <geometry.remove value="true"/>
        <geometry.min-radius.fix value="true"/>
        <lefthand value="true"/>
    </processing>

    <tls_building>
        <tls.discard-loaded value="true"/>
    </tls_building>

    <junctions>
        <no-turnarounds.except-deadend value="true"/>
    </junctions>

    <formats>
        <opendrive.import-all-lanes value="true"/>
        <opendrive.curve-resolution value="1"/>
    </formats>

</configuration>
-->
<net xmlns:xsi="http://www.w3.org/2001/XMLSchema-instance" version="1.16" junctionCornerDetail="5" rectangularLaneCut="true" lefthand="true" limitTurnSpeed="5.50" xsi:noNamespaceSchemaLocation="http://sumo.dlr.de/xsd/net_file.xsd">
  <location netOffset="660.68,650.34" convBoundary="0.00,-0.00,1451.25,1773.49" origBoundary="0.000000,0.000000,0.000000,0.000000" projParameter="+proj=tmerc +lat_0=22.30235331546677 +lon_0=114.1771970024831 +k=1 +x_0=0 +y_0=0 +datum=WGS84 +units=m  +vunits=m +no_defs "/>
  <type id="driving" priority="1" speed="13.89" disallow="pedestrian tram rail_urban rail rail_electric rail_fast ship" width="3.65"/>
  <edge id=":1#1_0" function="internal">
    <lane id=":1#1_0_0" index="0" allow="pedestrian" speed="17.88" length="7.09" width="2.00" shape="202.32,1058.45,8.19 204.15,1059.50,8.17 205.61,1059.85,8.15 207.07,1060.21,8.14 208.91,1061.26,8.12"/>
    <lane id=":1#1_0_1" index="1" disallow="all" speed="17.88" length="7.09" width="0.63" shape="203.12,1057.40,8.19 204.95,1058.45,8.17 206.41,1058.81,8.15 207.87,1059.16,8.14 209.70,1060.21,8.12"/>
    <lane id=":1#1_0_2" index="2" disallow="pedestrian tram rail_urban rail rail_electric rail_fast ship" speed="17.88" length="7.09" width="3.50" shape="205.43,1054.36,8.19 210.96,1058.57,8.12"/>
    <lane id=":1#1_0_3" index="3" disallow="pedestrian tram rail_urban rail rail_electric rail_fast ship" speed="17.88" length="7.09" width="3.50" shape="207.55,1051.58,8.19 213.08,1055.78,8.12"/>
  </edge>
  <edge id=":1#2_0" function="internal">
    <lane id=":1#2_0_0" index="0" allow="pedestrian" speed="17.88" length="2.25" width="2.00" shape="199.55,1058.54,8.21 202.16,1058.33,8.19"/>
    <lane id=":1#2_0_1" index="1" disallow="all" speed="17.88" length="2.25" width="0.63" shape="200.35,1057.49,8.21 202.96,1057.28,8.19"/>
    <lane id=":1#2_0_2" index="2" allow="emergency authority" speed="17.88" length="2.25" width="1.75" shape="201.60,1055.84,8.21 203.68,1056.33,8.19"/>
    <lane id=":1#2_0_3" index="3" disallow="pedestrian tram rail_urban rail rail_electric rail_fast ship" speed="17.88" length="2.25" width="3.50" shape="203.72,1053.06,8.21 205.27,1054.24,8.19"/>
    <lane id=":1#2_0_4" index="4" disallow="pedestrian tram rail_urban rail rail_electric rail_fast ship" speed="17.88" length="2.25" width="3.50" shape="205.84,1050.28,8.21 207.39,1051.45,8.19"/>
  </edge>
  <edge id=":100#1_0" function="internal">
    <lane id=":100#1_0_0" index="0" disallow="all" speed="17.88" length="3.03" width="0.50" shape="1035.42,1178.03,10.10 1037.34,1180.29,10.20"/>
    <lane id=":100#1_0_1" index="1" disallow="pedestrian tram rail_urban rail rail_electric rail_fast ship" speed="17.88" length="3.03" width="3.50" shape="1036.94,1176.73,10.10 1038.87,1179.00,10.20"/>
    <lane id=":100#1_0_2" index="2" disallow="pedestrian tram rail_urban rail rail_electric rail_fast ship" speed="17.88" length="3.03" width="3.50" shape="1039.59,1174.44,10.10 1041.55,1176.74,10.20"/>
    <lane id=":100#1_0_3" index="3" disallow="pedestrian tram rail_urban rail rail_electric rail_fast ship" speed="17.88" length="3.03" width="3.50" shape="1042.24,1172.16,10.10 1044.22,1174.49,10.20"/>
    <lane id=":100#1_0_4" index="4" disallow="all" speed="17.88" length="3.03" width="0.50" shape="1043.75,1170.85,10.10 1045.75,1173.20,10.20"/>
    <lane id=":100#1_0_5" index="5" disallow="all" speed="17.88" length="3.03" width="0.64" shape="1044.18,1170.48,10.10 1046.19,1172.84,10.20"/>
  </edge>
  <edge id=":1009_0" function="internal">
    <lane id=":1009_0_0" index="0" disallow="pedestrian tram rail_urban rail rail_electric rail_fast ship" speed="17.88" length="64.33" width="3.50" shape="805.60,653.67,5.46 797.49,656.67,5.29 782.58,662.52,4.96 764.28,670.00,4.57 746.03,677.92,4.17">
      <param key="origId" value="1010_1"/>
    </lane>
  </edge>
  <edge id=":1009_1" function="internal">
    <lane id=":1009_1_0" index="0" allow="pedestrian" speed="17.88" length="65.15" width="3.67" shape="805.93,653.71,6.81 788.86,656.72,6.11 773.58,659.82,5.49 758.65,664.02,4.86 742.60,670.34,4.17">
      <param key="origId" value="1015_2"/>
    </lane>
    <lane id=":1009_1_1" index="1" disallow="all" speed="17.88" length="65.15" width="0.70" shape="806.31,655.81,6.81 789.32,658.81,6.11 774.22,661.86,5.49 759.47,666.02,4.86 743.50,672.33,4.17">
      <param key="origId" value="1015_1"/>
    </lane>
    <lane id=":1009_1_2" index="2" disallow="pedestrian tram rail_urban rail rail_electric rail_fast ship" speed="17.88" length="65.15" width="3.54" shape="806.87,658.95,6.81 789.96,661.82,6.11 775.04,664.62,5.48 760.46,668.52,4.87 744.58,674.72,4.17">
      <param key="origId" value="1018_1"/>
    </lane>
  </edge>
  <edge id=":1009_4" function="internal">
    <lane id=":1009_4_0" index="0" allow="pedestrian" speed="15.37" length="23.41" width="2.00" shape="753.29,693.94,4.17 759.88,688.11,4.25 762.71,678.31,4.35 762.41,673.92,4.39">
      <param key="origId" value="1019_-2"/>
    </lane>
    <lane id=":1009_4_1" index="1" disallow="all" speed="15.02" length="22.13" width="0.63" shape="752.74,692.74,4.17 758.89,687.20,4.25 761.45,677.76,4.35 761.13,673.69,4.39">
      <param key="origId" value="1019_-1"/>
    </lane>
  </edge>
  <edge id=":1009_6" function="internal">
    <lane id=":1009_6_0" index="0" disallow="pedestrian tram rail_urban rail rail_electric rail_fast ship" speed="17.88" length="67.68" width="3.50" shape="751.68,690.40,4.17 770.01,680.01,4.64 782.03,669.72,4.98 792.34,659.67,5.30 805.54,649.97,5.67">
      <param key="origId" value="1014_-1"/>
    </lane>
  </edge>
  <edge id=":1009_7" function="internal">
    <lane id=":1009_7_0" index="0" disallow="pedestrian tram rail_urban rail rail_electric rail_fast ship" speed="14.63" length="17.78" width="3.50" shape="751.68,690.40,4.17 757.15,685.33,4.25 759.34,676.54,4.35 759.23,675.28,4.36">
      <param key="origId" value="1022_-1"/>
    </lane>
  </edge>
  <edge id=":1009_8" function="internal">
    <lane id=":1009_8_0" index="0" disallow="pedestrian tram rail_urban rail rail_electric rail_fast ship" speed="17.88" length="67.34" width="3.50" shape="750.28,687.30,4.17 768.48,676.95,4.63 780.38,666.69,4.98 790.60,656.65,5.30 803.77,646.95,5.67">
      <param key="origId" value="1013_-1"/>
    </lane>
  </edge>
  <edge id=":1009_9" function="internal">
    <lane id=":1009_9_0" index="0" disallow="pedestrian tram rail_urban rail rail_electric rail_fast ship" speed="13.82" length="12.50" width="3.50" shape="750.28,687.30,4.17 754.55,682.98,4.24 755.73,676.67,4.32">
      <param key="origId" value="1023_-1"/>
    </lane>
  </edge>
  <edge id=":1009_10" function="internal">
    <lane id=":1009_10_0" index="0" disallow="pedestrian tram rail_urban rail rail_electric rail_fast ship" speed="17.88" length="7.17" width="3.50" shape="748.88,684.21,4.17 755.44,681.32,4.31">
      <param key="origId" value="1012_-1"/>
    </lane>
    <lane id=":1009_10_1" index="1" disallow="pedestrian tram rail_urban rail rail_electric rail_fast ship" speed="17.88" length="26.95" width="3.50" shape="747.46,681.06,4.17 767.69,672.17,4.61 772.17,670.32,4.71">
      <param key="origId" value="1011_-1"/>
    </lane>
  </edge>
  <edge id=":1009_15" function="internal">
    <lane id=":1009_15_0" index="0" allow="pedestrian" speed="15.37" length="27.79" width="2.00" shape="762.41,673.92,4.39 761.77,664.53,4.48 757.07,646.76,4.66">
      <param key="origId" value="1019_-2"/>
    </lane>
  </edge>
  <edge id=":1009_16" function="internal">
    <lane id=":1009_16_0" index="0" disallow="all" speed="15.02" length="27.15" width="0.63" shape="761.13,673.69,4.39 760.42,664.42,4.48 755.82,647.18,4.66">
      <param key="origId" value="1019_-1"/>
    </lane>
  </edge>
  <edge id=":1009_17" function="internal">
    <lane id=":1009_17_0" index="0" disallow="pedestrian tram rail_urban rail rail_electric rail_fast ship" speed="14.63" length="28.07" width="3.50" shape="759.23,675.28,4.36 758.24,664.04,4.48 753.85,647.83,4.66">
      <param key="origId" value="1022_-1"/>
    </lane>
  </edge>
  <edge id=":1009_18" function="internal">
    <lane id=":1009_18_0" index="0" disallow="pedestrian tram rail_urban rail rail_electric rail_fast ship" speed="13.82" length="28.40" width="3.50" shape="755.73,676.67,4.32 756.01,675.15,4.34 754.67,663.80,4.47 750.53,648.94,4.66">
      <param key="origId" value="1023_-1"/>
    </lane>
  </edge>
  <edge id=":1009_19" function="internal">
    <lane id=":1009_19_0" index="0" disallow="pedestrian tram rail_urban rail rail_electric rail_fast ship" speed="17.88" length="56.51" width="3.50" shape="755.44,681.32,4.31 768.99,675.37,4.61 785.68,668.50,4.98 798.72,663.50,5.26 807.87,660.29,5.46">
      <param key="origId" value="1012_-1"/>
    </lane>
  </edge>
  <edge id=":1009_20" function="internal">
    <lane id=":1009_20_0" index="0" disallow="pedestrian tram rail_urban rail rail_electric rail_fast ship" speed="17.88" length="37.10" width="3.50" shape="772.17,670.32,4.71 784.49,665.24,4.98 797.60,660.20,5.26 806.77,656.97,5.46">
      <param key="origId" value="1011_-1"/>
    </lane>
  </edge>
  <edge id=":1009_12" function="internal">
    <lane id=":1009_12_0" index="0" allow="pedestrian" speed="16.96" length="78.59" width="2.00" shape="740.68,652.23,4.66 750.57,666.90,4.89 765.60,670.36,5.08 784.87,665.03,5.34 807.50,653.32,5.67">
      <param key="origId" value="1024_2"/>
    </lane>
    <lane id=":1009_12_1" index="1" disallow="all" speed="16.63" length="76.11" width="0.63" shape="741.93,651.81,4.66 751.47,665.75,4.88 766.08,668.90,5.08 784.83,663.60,5.34 806.84,652.18,5.67">
      <param key="origId" value="1024_1"/>
    </lane>
    <lane id=":1009_12_2" index="2" disallow="pedestrian tram rail_urban rail rail_electric rail_fast ship" speed="15.88" length="68.26" width="3.50" shape="747.21,650.05,4.66 755.75,662.39,4.88 768.87,665.09,5.08 785.75,660.25,5.34 805.54,649.97,5.67">
      <param key="origId" value="1027_-1"/>
    </lane>
  </edge>
  <edge id=":1029_0" function="internal">
    <lane id=":1029_0_0" index="0" allow="pedestrian" speed="12.02" length="10.71" width="2.00" shape="59.23,1156.44,5.87 61.96,1161.91,5.70 65.55,1164.77,5.58">
      <param key="origId" value="1035_2"/>
    </lane>
    <lane id=":1029_0_1" index="1" disallow="all" speed="11.63" length="11.20" width="0.63" shape="60.54,1156.55,5.87 63.09,1161.71,5.70 67.39,1165.04,5.55">
      <param key="origId" value="1035_1"/>
    </lane>
  </edge>
  <edge id=":1029_2" function="internal">
    <lane id=":1029_2_0" index="0" disallow="pedestrian tram rail_urban rail rail_electric rail_fast ship" speed="17.88" length="26.26" width="3.50" shape="62.60,1156.73,5.87 60.40,1182.92,5.44">
      <param key="origId" value="1046_-1"/>
    </lane>
    <lane id=":1029_2_1" index="1" disallow="pedestrian tram rail_urban rail rail_electric rail_fast ship" speed="17.88" length="26.26" width="3.50" shape="66.09,1157.03,5.87 63.89,1183.20,5.44">
      <param key="origId" value="1048_-1"/>
    </lane>
    <lane id=":1029_2_2" index="2" disallow="pedestrian tram rail_urban rail rail_electric rail_fast ship" speed="17.88" length="26.26" width="3.50" shape="69.58,1157.33,5.87 67.38,1183.47,5.44">
      <param key="origId" value="1047_-1"/>
    </lane>
  </edge>
  <edge id=":1029_17" function="internal">
    <lane id=":1029_17_0" index="0" allow="pedestrian" speed="12.02" length="23.12" width="2.00" shape="65.55,1164.77,5.58 69.18,1167.67,5.46 78.17,1172.35,5.19 86.20,1174.59,4.97">
      <param key="origId" value="1035_2"/>
    </lane>
  </edge>
  <edge id=":1029_18" function="internal">
    <lane id=":1029_18_0" index="0" disallow="all" speed="11.63" length="20.85" width="0.63" shape="67.39,1165.04,5.55 69.90,1166.99,5.46 78.47,1171.23,5.19 86.30,1173.27,4.97">
      <param key="origId" value="1035_1"/>
    </lane>
  </edge>
  <edge id=":1029_5" function="internal">
    <lane id=":1029_5_0" index="0" allow="pedestrian" speed="13.02" length="39.85" width="2.00" shape="87.05,1164.35,4.97 74.51,1164.61,5.12 65.33,1167.75,5.23 59.51,1173.77,5.33 57.03,1182.66,5.44">
      <param key="origId" value="1032_-2"/>
    </lane>
    <lane id=":1029_5_1" index="1" disallow="all" speed="12.12" length="34.92" width="0.63" shape="86.94,1165.66,4.97 78.82,1166.94,5.08 69.54,1171.03,5.22 61.82,1176.72,5.35 58.34,1182.76,5.44">
      <param key="origId" value="1032_-1"/>
    </lane>
  </edge>
  <edge id=":1029_7" function="internal">
    <lane id=":1029_7_0" index="0" disallow="pedestrian tram rail_urban rail rail_electric rail_fast ship" speed="17.88" length="34.67" width="3.50" shape="86.76,1167.72,4.97 77.17,1167.40,4.99 69.55,1168.15,5.01 61.98,1169.74,5.04 52.56,1171.96,5.06">
      <param key="origId" value="1031_1"/>
    </lane>
  </edge>
  <edge id=":1029_8" function="internal">
    <lane id=":1029_8_0" index="0" allow="pedestrian" speed="11.44" length="10.10" width="2.00" shape="77.74,1184.27,5.44 76.54,1174.24,5.34">
      <param key="origId" value="1038_2"/>
    </lane>
    <lane id=":1029_8_1" index="1" disallow="all" speed="10.96" length="10.92" width="0.63" shape="76.42,1184.17,5.44 75.28,1174.88,5.34 74.19,1173.76,5.33">
      <param key="origId" value="1038_1"/>
    </lane>
  </edge>
  <edge id=":1029_10" function="internal">
    <lane id=":1029_10_0" index="0" disallow="pedestrian tram rail_urban rail rail_electric rail_fast ship" speed="17.88" length="26.18" width="3.50" shape="74.36,1184.01,5.44 76.55,1157.92,5.87">
      <param key="origId" value="1049_1"/>
    </lane>
  </edge>
  <edge id=":1029_11" function="internal">
    <lane id=":1029_11_0" index="0" disallow="pedestrian tram rail_urban rail rail_electric rail_fast ship" speed="10.50" length="11.36" width="3.50" shape="74.36,1184.01,5.44 73.31,1175.88,5.34 71.02,1173.69,5.30">
      <param key="origId" value="1041_1"/>
    </lane>
  </edge>
  <edge id=":1029_12" function="internal">
    <lane id=":1029_12_0" index="0" disallow="pedestrian tram rail_urban rail rail_electric rail_fast ship" speed="17.88" length="26.21" width="3.50" shape="70.87,1183.74,5.44 73.06,1157.63,5.87">
      <param key="origId" value="1050_1"/>
    </lane>
  </edge>
  <edge id=":1029_19" function="internal">
    <lane id=":1029_19_0" index="0" allow="pedestrian" speed="11.44" length="27.32" width="2.00" shape="76.54,1174.24,5.34 71.42,1168.80,5.27 62.97,1167.19,5.18 51.82,1168.66,5.06">
      <param key="origId" value="1038_2"/>
    </lane>
  </edge>
  <edge id=":1029_20" function="internal">
    <lane id=":1029_20_0" index="0" disallow="all" speed="10.96" length="23.92" width="0.63" shape="74.19,1173.76,5.33 70.45,1169.92,5.27 62.52,1168.53,5.18 52.11,1169.95,5.06">
      <param key="origId" value="1038_1"/>
    </lane>
  </edge>
  <edge id=":1029_21" function="internal">
    <lane id=":1029_21_0" index="0" disallow="pedestrian tram rail_urban rail rail_electric rail_fast ship" speed="10.50" length="19.44" width="3.50" shape="71.02,1173.69,5.30 68.93,1171.68,5.27 61.81,1170.63,5.18 52.56,1171.96,5.06">
      <param key="origId" value="1041_1"/>
    </lane>
  </edge>
  <edge id=":1029_13" function="internal">
    <lane id=":1029_13_0" index="0" allow="pedestrian" speed="14.49" length="37.77" width="2.00" shape="54.07,1178.68,5.06 66.46,1175.05,5.34 75.48,1170.48,5.55 81.13,1164.97,5.72 83.41,1158.51,5.87">
      <param key="origId" value="1042_-2"/>
    </lane>
    <lane id=":1029_13_1" index="1" disallow="all" speed="14.11" length="36.12" width="0.63" shape="53.78,1177.40,5.06 65.76,1173.92,5.34 74.47,1169.59,5.56 79.91,1164.42,5.72 82.10,1158.40,5.87">
      <param key="origId" value="1042_-1"/>
    </lane>
  </edge>
  <edge id=":1029_15" function="internal">
    <lane id=":1029_15_0" index="0" disallow="pedestrian tram rail_urban rail rail_electric rail_fast ship" speed="17.88" length="33.62" width="3.50" shape="53.33,1175.38,5.06 62.58,1173.17,5.04 69.78,1171.60,5.01 77.05,1170.88,4.99 86.48,1171.21,4.97">
      <param key="origId" value="1030_-1"/>
    </lane>
  </edge>
  <edge id=":1029_16" function="internal">
    <lane id=":1029_16_0" index="0" disallow="pedestrian tram rail_urban rail rail_electric rail_fast ship" speed="13.74" length="33.53" width="3.50" shape="53.33,1175.38,5.06 64.65,1172.14,5.34 72.87,1168.20,5.56 78.00,1163.56,5.73 80.04,1158.22,5.87">
      <param key="origId" value="1045_1"/>
    </lane>
  </edge>
  <edge id=":1051_0" function="internal">
    <lane id=":1051_0_0" index="0" allow="pedestrian" speed="17.88" length="20.28" width="2.00" shape="273.53,831.13,10.22 272.00,851.35,9.81">
      <param key="origId" value="1063_-2"/>
    </lane>
    <lane id=":1051_0_1" index="1" disallow="all" speed="17.88" length="20.28" width="0.63" shape="274.84,831.25,10.22 273.31,851.45,9.81">
      <param key="origId" value="1063_-1"/>
    </lane>
  </edge>
  <edge id=":1051_2" function="internal">
    <lane id=":1051_2_0" index="0" disallow="pedestrian tram rail_urban rail rail_electric rail_fast ship" speed="7.53" length="4.28" width="3.50" shape="276.90,831.44,10.22 276.14,834.95,10.30 275.78,835.54,10.32">
      <param key="origId" value="1052_1"/>
    </lane>
  </edge>
  <edge id=":1051_3" function="internal">
    <lane id=":1051_3_0" index="0" disallow="pedestrian tram rail_urban rail rail_electric rail_fast ship" speed="17.88" length="20.23" width="3.50" shape="276.90,831.44,10.22 275.38,851.60,9.81">
      <param key="origId" value="1069_1"/>
    </lane>
  </edge>
  <edge id=":1051_12" function="internal">
    <lane id=":1051_12_0" index="0" disallow="pedestrian tram rail_urban rail rail_electric rail_fast ship" speed="7.53" length="7.89" width="3.50" shape="275.78,835.54,10.32 274.63,837.39,10.37 272.35,838.75,10.42 269.31,839.04,10.49">
      <param key="origId" value="1052_1"/>
    </lane>
  </edge>
  <edge id=":1051_4" function="internal">
    <lane id=":1051_4_0" index="0" allow="pedestrian" speed="10.11" length="12.91" width="2.00" shape="282.24,852.11,9.81 281.88,845.29,10.00 279.64,840.28,10.16 279.17,839.92,10.18">
      <param key="origId" value="1058_2"/>
    </lane>
    <lane id=":1051_4_1" index="1" disallow="all" speed="9.56" length="11.56" width="0.63" shape="280.93,852.01,9.81 280.60,845.78,10.00 278.58,841.20,10.16 278.34,841.01,10.17">
      <param key="origId" value="1058_1"/>
    </lane>
  </edge>
  <edge id=":1051_6" function="internal">
    <lane id=":1051_6_0" index="0" disallow="pedestrian tram rail_urban rail rail_electric rail_fast ship" speed="17.88" length="20.16" width="3.50" shape="278.87,851.86,9.81 280.38,831.76,10.22">
      <param key="origId" value="1068_-1"/>
    </lane>
  </edge>
  <edge id=":1051_7" function="internal">
    <lane id=":1051_7_0" index="0" disallow="pedestrian tram rail_urban rail rail_electric rail_fast ship" speed="9.02" length="5.62" width="3.50" shape="278.87,851.86,9.81 278.60,846.54,10.01 278.49,846.27,10.02">
      <param key="origId" value="1061_1"/>
    </lane>
  </edge>
  <edge id=":1051_13" function="internal">
    <lane id=":1051_13_0" index="0" allow="pedestrian" speed="10.11" length="10.76" width="2.00" shape="279.17,839.92,10.18 275.54,837.07,10.31 269.56,835.66,10.49">
      <param key="origId" value="1058_2"/>
    </lane>
  </edge>
  <edge id=":1051_14" function="internal">
    <lane id=":1051_14_0" index="0" disallow="all" speed="9.56" length="9.99" width="0.63" shape="278.34,841.01,10.17 274.87,838.26,10.31 269.46,836.98,10.49">
      <param key="origId" value="1058_1"/>
    </lane>
  </edge>
  <edge id=":1051_15" function="internal">
    <lane id=":1051_15_0" index="0" disallow="pedestrian tram rail_urban rail rail_electric rail_fast ship" speed="9.02" length="12.59" width="3.50" shape="278.49,846.27,10.02 276.92,842.63,10.17 273.82,840.13,10.31 269.31,839.04,10.49">
      <param key="origId" value="1061_1"/>
    </lane>
  </edge>
  <edge id=":1051_8" function="internal">
    <lane id=":1051_8_0" index="0" allow="pedestrian" speed="10.06" length="23.12" width="2.00" shape="268.81,845.90,10.49 274.83,845.42,10.42 279.33,842.95,10.36 282.31,838.50,10.30 283.75,832.07,10.22">
      <param key="origId" value="1053_-2"/>
    </lane>
    <lane id=":1051_8_1" index="1" disallow="all" speed="9.51" length="21.03" width="0.63" shape="268.90,844.59,10.49 274.36,844.14,10.42 278.43,841.88,10.36 281.13,837.82,10.30 282.44,831.95,10.22">
      <param key="origId" value="1053_-1"/>
    </lane>
  </edge>
  <edge id=":1051_10" function="internal">
    <lane id=":1051_10_0" index="0" disallow="pedestrian tram rail_urban rail rail_electric rail_fast ship" speed="7.59" length="12.59" width="3.50" shape="269.05,842.53,10.49 272.06,843.29,10.32 274.11,845.05,10.17 275.22,847.82,10.01 275.38,851.60,9.81">
      <param key="origId" value="1062_1"/>
    </lane>
  </edge>
  <edge id=":1051_11" function="internal">
    <lane id=":1051_11_0" index="0" disallow="pedestrian tram rail_urban rail rail_electric rail_fast ship" speed="8.97" length="17.74" width="3.50" shape="269.05,842.53,10.49 273.61,842.14,10.42 277.02,840.21,10.36 279.28,836.75,10.30 280.38,831.76,10.22">
      <param key="origId" value="1057_-1"/>
    </lane>
  </edge>
  <edge id=":1070_0" function="internal">
    <lane id=":1070_0_0" index="0" allow="pedestrian" speed="17.58" length="5.73" width="2.00" shape="77.20,961.63,8.52 77.79,967.33,8.51">
      <param key="origId" value="1083_2"/>
    </lane>
    <lane id=":1070_0_1" index="1" disallow="all" speed="17.26" length="6.48" width="0.63" shape="78.51,961.72,8.52 79.19,968.16,8.51">
      <param key="origId" value="1083_1"/>
    </lane>
  </edge>
  <edge id=":1070_2" function="internal">
    <lane id=":1070_2_0" index="0" disallow="pedestrian tram rail_urban rail rail_electric rail_fast ship" speed="17.88" length="49.99" width="3.50" shape="80.58,961.85,8.52 76.34,1011.67,7.85">
      <param key="origId" value="1093_-1"/>
    </lane>
    <lane id=":1070_2_1" index="1" disallow="pedestrian tram rail_urban rail rail_electric rail_fast ship" speed="17.88" length="49.99" width="3.50" shape="84.07,962.08,8.52 79.83,1011.88,7.85">
      <param key="origId" value="1090_-1"/>
    </lane>
    <lane id=":1070_2_2" index="2" disallow="pedestrian tram rail_urban rail rail_electric rail_fast ship" speed="17.88" length="49.99" width="3.50" shape="87.56,962.30,8.52 83.33,1012.09,7.85">
      <param key="origId" value="1092_-1"/>
    </lane>
  </edge>
  <edge id=":1070_20" function="internal">
    <lane id=":1070_20_0" index="0" allow="pedestrian" speed="17.58" length="47.52" width="2.00" shape="77.79,967.33,8.51 78.45,973.77,8.50 83.87,984.44,8.47 93.45,993.65,8.44 107.21,1001.41,8.40">
      <param key="origId" value="1083_2"/>
    </lane>
  </edge>
  <edge id=":1070_21" function="internal">
    <lane id=":1070_21_0" index="0" disallow="all" speed="17.26" length="45.16" width="0.63" shape="79.19,968.16,8.51 79.74,973.43,8.50 85.02,983.74,8.47 94.35,992.67,8.44 107.74,1000.20,8.40">
      <param key="origId" value="1083_1"/>
    </lane>
  </edge>
  <edge id=":1070_5" function="internal">
    <lane id=":1070_5_0" index="0" allow="pedestrian" speed="14.67" length="64.38" width="2.00" shape="115.63,982.42,8.40 98.15,978.03,8.25 85.12,981.85,8.13 76.68,993.21,8.01 72.96,1011.46,7.85">
      <param key="origId" value="1086_-2"/>
    </lane>
    <lane id=":1070_5_1" index="1" disallow="all" speed="14.30" length="61.69" width="0.63" shape="115.10,983.63,8.40 98.36,979.43,8.25 85.90,983.12,8.13 77.83,994.04,8.01 74.27,1011.54,7.85">
      <param key="origId" value="1086_-1"/>
    </lane>
  </edge>
  <edge id=":1070_7" function="internal">
    <lane id=":1070_7_0" index="0" disallow="pedestrian tram rail_urban rail rail_electric rail_fast ship" speed="17.88" length="54.17" width="3.50" shape="114.26,985.52,8.40 101.97,979.90,8.25 90.92,975.06,8.11 78.72,970.74,7.96 62.97,966.71,7.78">
      <param key="origId" value="1071_-1"/>
    </lane>
    <lane id=":1070_7_1" index="1" disallow="pedestrian tram rail_urban rail rail_electric rail_fast ship" speed="17.88" length="54.17" width="3.50" shape="112.84,988.72,8.40 100.65,983.14,8.24 89.84,978.37,8.11 77.87,974.13,7.96 62.23,970.13,7.78">
      <param key="origId" value="1076_-1"/>
    </lane>
    <lane id=":1070_7_2" index="2" disallow="pedestrian tram rail_urban rail rail_electric rail_fast ship" speed="17.88" length="54.17" width="3.50" shape="112.84,988.72,8.40 100.54,983.67,8.24 89.47,980.08,8.11 77.24,977.01,7.97 61.48,973.55,7.78">
      <param key="origId" value="1074_-1"/>
    </lane>
  </edge>
  <edge id=":1070_10" function="internal">
    <lane id=":1070_10_0" index="0" allow="pedestrian" speed="17.81" length="16.05" width="2.00" shape="97.18,1012.94,7.85 96.21,996.92,7.83">
      <param key="origId" value="1080_2"/>
    </lane>
    <lane id=":1070_10_1" index="1" disallow="all" speed="17.50" length="17.11" width="0.63" shape="95.87,1012.86,7.85 94.84,995.78,7.83">
      <param key="origId" value="1080_1"/>
    </lane>
  </edge>
  <edge id=":1070_12" function="internal">
    <lane id=":1070_12_0" index="0" disallow="pedestrian tram rail_urban rail rail_electric rail_fast ship" speed="17.88" length="49.95" width="3.50" shape="93.81,1012.73,7.85 98.04,962.98,8.52">
      <param key="origId" value="1089_-1"/>
    </lane>
    <lane id=":1070_12_1" index="1" disallow="pedestrian tram rail_urban rail rail_electric rail_fast ship" speed="17.88" length="49.95" width="3.50" shape="90.31,1012.52,7.85 94.55,962.75,8.52">
      <param key="origId" value="1094_-1"/>
    </lane>
    <lane id=":1070_12_2" index="2" disallow="pedestrian tram rail_urban rail rail_electric rail_fast ship" speed="17.88" length="49.95" width="3.50" shape="86.82,1012.31,7.85 91.05,962.53,8.52">
      <param key="origId" value="1091_-1"/>
    </lane>
  </edge>
  <edge id=":1070_22" function="internal">
    <lane id=":1070_22_0" index="0" allow="pedestrian" speed="17.81" length="50.03" width="2.00" shape="96.21,996.92,7.83 96.05,994.20,7.83 90.08,979.70,7.81 79.30,969.43,7.80 63.69,963.40,7.78">
      <param key="origId" value="1080_2"/>
    </lane>
  </edge>
  <edge id=":1070_23" function="internal">
    <lane id=":1070_23_0" index="0" disallow="all" speed="17.50" length="47.08" width="0.63" shape="94.84,995.78,7.83 94.77,994.63,7.83 88.99,980.52,7.81 78.54,970.54,7.80 63.41,964.69,7.78">
      <param key="origId" value="1080_1"/>
    </lane>
  </edge>
  <edge id=":1070_15" function="internal">
    <lane id=":1070_15_0" index="0" allow="pedestrian" speed="15.06" length="59.40" width="2.00" shape="58.54,987.11,7.78 76.24,989.65,8.00 89.31,987.53,8.17 97.72,979.23,8.32 101.42,963.20,8.52">
      <param key="origId" value="1077_-2"/>
    </lane>
    <lane id=":1070_15_1" index="1" disallow="all" speed="14.69" length="56.98" width="0.63" shape="58.82,985.83,7.78 75.82,988.28,8.00 88.42,986.32,8.17 96.54,978.43,8.32 100.10,963.11,8.52">
      <param key="origId" value="1077_-1"/>
    </lane>
  </edge>
  <edge id=":1070_17" function="internal">
    <lane id=":1070_17_0" index="0" disallow="pedestrian tram rail_urban rail rail_electric rail_fast ship" speed="17.88" length="52.29" width="3.50" shape="59.26,983.81,7.78 74.06,986.89,7.96 84.51,989.25,8.09 94.67,992.52,8.22 108.58,998.31,8.40">
      <param key="origId" value="1073_1"/>
    </lane>
    <lane id=":1070_17_1" index="1" disallow="pedestrian tram rail_urban rail rail_electric rail_fast ship" speed="17.88" length="52.29" width="3.50" shape="60.00,980.39,7.78 74.90,983.50,7.96 85.59,985.94,8.09 95.98,989.28,8.22 110.00,995.12,8.40">
      <param key="origId" value="1075_1"/>
    </lane>
    <lane id=":1070_17_2" index="2" disallow="pedestrian tram rail_urban rail rail_electric rail_fast ship" speed="17.88" length="52.29" width="3.50" shape="60.74,976.97,7.78 75.75,980.12,7.96 86.67,982.63,8.09 97.29,986.05,8.22 111.42,991.92,8.40">
      <param key="origId" value="1072_1"/>
    </lane>
  </edge>
  <edge id=":1100_0" function="internal">
    <lane id=":1100_0_0" index="0" allow="pedestrian" speed="17.88" length="33.30" width="2.00" shape="801.86,523.85,4.28 780.15,549.12,4.63">
      <param key="origId" value="1104_-2"/>
    </lane>
    <lane id=":1100_0_1" index="1" disallow="all" speed="17.88" length="33.30" width="0.63" shape="802.80,524.77,4.28 781.10,550.04,4.63">
      <param key="origId" value="1104_-1"/>
    </lane>
    <lane id=":1100_0_2" index="2" disallow="pedestrian tram rail_urban rail rail_electric rail_fast ship" speed="17.88" length="33.30" width="3.50" shape="804.28,526.22,4.28 782.59,551.47,4.63">
      <param key="origId" value="1107_1"/>
    </lane>
  </edge>
  <edge id=":1100_3" function="internal">
    <lane id=":1100_3_0" index="0" disallow="pedestrian tram rail_urban rail rail_electric rail_fast ship" speed="9.97" length="4.14" width="3.50" shape="806.78,528.67,4.28 803.49,531.18,4.34">
      <param key="origId" value="1111_-1"/>
    </lane>
  </edge>